[General]
network = Road
check-signals = true
num-rngs = 2
**.rng-0 = 0
**.rng-1 = 1
sim-time-limit = 108000s
repeat = 30
seed-set = ${repetition}



[Config Run1]
description = "Low P, Low X, Low L"
**.P = 40
**.X = 1
**.L = 400

[Config Run2]
description = "Low P, Low X, High L"
**.P = 40
**.X = 1
**.L = 700

[Config Run3]
description = "Low P, High X, Low L"
**.P = 40
**.X = 4
**.L = 400

[Config Run4]
description = "Low P, High X, High L"
**.P = 40
**.X = 4
**.L = 700

[Config Run5]
description = "High P, Low X, Low L"
**.P = 80
**.X = 1
**.L = 400

[Config Run6]
description = "High P, Low X, High L"
**.P = 80
**.X = 1
**.L = 700

[Config Run7]
description = "High P, High X, Low L"
**.P = 80
**.X = 4
**.L = 400

[Config Run8]
description = "High P, High X, High L"
**.P = 80
**.X = 4
**.L = 700
